Circuit: *** SPICE deck for cell INVERTER_SIM{lay} from library NOT

Ignoring BSIM parameter XL
Ignoring BSIM parameter XW
Ignoring BSIM parameter XL
Ignoring BSIM parameter XW
Direct Newton iteration for .op point succeeded.

Date: Tue Jul 12 11:02:43 2022
Total elapsed time: 0.043 seconds.

tnom = 27
temp = 27
method = modified trap
totiter = 2644
traniter = 2639
tranpoints = 1233
accept = 1178
rejected = 55
matrix size = 5
fillins = 0
solver = Normal
Matrix Compiler1: off  [0.0]/0.0/0.0
Matrix Compiler2: off  [0.0]/0.0/0.0

